Version 4
SHEET 1 880 680
WIRE 256 -192 -272 -192
WIRE 352 -192 256 -192
WIRE 800 -192 448 -192
WIRE 256 -176 256 -192
WIRE 112 -80 80 -80
WIRE 208 -80 176 -80
WIRE 256 -80 256 -96
WIRE 368 -80 368 -144
WIRE 368 -80 256 -80
WIRE 368 -64 368 -80
WIRE 80 -32 80 -80
WIRE 208 -32 208 -80
WIRE -272 32 -272 -192
WIRE -128 32 -272 32
WIRE -32 32 -128 32
WIRE 16 32 -32 32
WIRE 496 32 272 32
WIRE 640 32 496 32
WIRE -128 48 -128 32
WIRE 800 80 800 -192
WIRE 496 96 496 32
WIRE -32 128 -32 32
WIRE 16 128 -32 128
WIRE 368 128 368 16
WIRE 368 128 272 128
WIRE -272 192 -272 32
WIRE 640 192 640 32
WIRE 16 224 -32 224
WIRE 496 224 496 176
WIRE 496 224 272 224
WIRE 368 288 368 128
WIRE -32 320 -32 224
WIRE 16 320 -32 320
WIRE 320 320 272 320
WIRE 496 336 496 224
WIRE -32 352 -32 320
WIRE -272 448 -272 272
WIRE -128 448 -128 112
WIRE -128 448 -272 448
WIRE -32 448 -32 416
WIRE -32 448 -128 448
WIRE 320 448 320 320
WIRE 320 448 -32 448
WIRE 368 448 368 352
WIRE 368 448 320 448
WIRE 496 448 496 416
WIRE 496 448 368 448
WIRE 640 448 640 256
WIRE 640 448 496 448
WIRE 800 448 800 160
WIRE 800 448 640 448
WIRE -32 464 -32 448
FLAG -32 464 0
SYMBOL PowerProducts\\LTC3255 144 176 R0
SYMATTR InstName U1
SYMBOL cap 176 -96 R90
WINDOW 0 0 32 VBottom 2
WINDOW 3 32 32 VTop 2
SYMATTR InstName C1
SYMATTR Value 1µ
SYMBOL cap -48 352 R0
SYMATTR InstName C2
SYMATTR Value 0.1µ
SYMBOL cap -144 48 R0
SYMATTR InstName C3
SYMATTR Value 1µ
SYMBOL voltage -272 176 R0
WINDOW 123 0 0 Left 0
WINDOW 39 0 0 Left 0
SYMATTR InstName V1
SYMATTR Value 30
SYMBOL res 480 320 R0
SYMATTR InstName R2
SYMATTR Value 1.21Meg
SYMBOL res 480 80 R0
SYMATTR InstName R3
SYMATTR Value 2.15Meg
SYMBOL cap 624 192 R0
SYMATTR InstName C4
SYMATTR Value 10µ
SYMBOL pmos 448 -144 M270
SYMATTR InstName M1
SYMATTR Value BSS84
SYMBOL res 784 64 R0
SYMATTR InstName R5
SYMATTR Value 10k
SYMBOL res 352 -80 R0
SYMATTR InstName R4
SYMATTR Value 100k
SYMBOL res 240 -192 R0
SYMATTR InstName R1
SYMATTR Value 10k
SYMBOL zener 384 352 R180
WINDOW 0 -28 69 Left 2
WINDOW 3 -76 -28 Left 2
SYMATTR InstName D1
SYMATTR Value BZX84C15L
SYMATTR Description Diode
SYMATTR Type diode
TEXT -304 488 Left 2 !.tran 0 2m 0 10u
