Version 4
SHEET 1 996 680
WIRE 864 -464 -1264 -464
WIRE -880 -400 -912 -400
WIRE -784 -400 -816 -400
WIRE -912 -336 -912 -400
WIRE -784 -336 -784 -400
WIRE -1264 -272 -1264 -464
WIRE -1200 -272 -1264 -272
WIRE -1120 -272 -1200 -272
WIRE -1008 -272 -1120 -272
WIRE -976 -272 -1008 -272
WIRE -688 -272 -720 -272
WIRE -592 -272 -688 -272
WIRE -448 -272 -592 -272
WIRE 16 -272 -448 -272
WIRE 656 -272 16 -272
WIRE 864 -224 864 -464
WIRE -128 -208 -336 -208
WIRE 480 -208 400 -208
WIRE 560 -208 544 -208
WIRE -592 -192 -592 -272
WIRE 16 -192 16 -272
WIRE -1120 -176 -1120 -272
WIRE -1008 -176 -1008 -272
WIRE -976 -176 -1008 -176
WIRE -688 -176 -688 -192
WIRE -688 -176 -720 -176
WIRE 656 -144 656 -272
WIRE 400 -128 400 -208
WIRE 464 -128 400 -128
WIRE 560 -128 560 -208
WIRE 560 -128 544 -128
WIRE 576 -128 560 -128
WIRE -1264 -112 -1264 -272
WIRE -448 -112 -448 -272
WIRE -128 -112 -128 -128
WIRE -48 -112 -128 -112
WIRE 864 -112 864 -144
WIRE -128 -96 -128 -112
WIRE -976 -80 -1072 -80
WIRE -592 -80 -592 -112
WIRE -592 -80 -720 -80
WIRE -592 -48 -592 -80
WIRE -176 -32 -224 -32
WIRE -48 -32 -48 -48
WIRE -48 -32 -80 -32
WIRE 16 -32 16 -112
WIRE 16 -32 -48 -32
WIRE 144 -32 16 -32
WIRE 656 -32 656 -48
WIRE 672 -32 672 -48
WIRE 672 -32 656 -32
WIRE 688 -32 672 -32
WIRE 816 -32 768 -32
WIRE 224 -16 208 -16
WIRE 400 -16 400 -128
WIRE 400 -16 304 -16
WIRE 656 -16 656 -32
WIRE 672 -16 672 -32
WIRE -976 16 -1040 16
WIRE -672 16 -720 16
WIRE -336 16 -336 -208
WIRE -224 16 -224 -32
WIRE 16 32 16 -32
WIRE -1040 64 -1040 16
WIRE 400 64 400 -16
WIRE 464 64 400 64
WIRE 560 64 544 64
WIRE 576 64 560 64
WIRE -144 80 -176 80
WIRE -48 80 -64 80
WIRE 400 144 400 64
WIRE 480 144 400 144
WIRE 560 144 560 64
WIRE 560 144 544 144
WIRE -1264 208 -1264 -48
WIRE -1120 208 -1120 -112
WIRE -1120 208 -1264 208
WIRE -1072 208 -1072 -80
WIRE -1072 208 -1120 208
WIRE -1040 208 -1040 128
WIRE -1040 208 -1072 208
WIRE -672 208 -672 16
WIRE -672 208 -1040 208
WIRE -592 208 -592 32
WIRE -592 208 -672 208
WIRE -448 208 -448 -48
WIRE -448 208 -592 208
WIRE -336 208 -336 96
WIRE -336 208 -448 208
WIRE -224 208 -224 96
WIRE -224 208 -336 208
WIRE -176 208 -176 80
WIRE -176 208 -224 208
WIRE 16 208 16 128
WIRE 16 208 -176 208
WIRE 160 208 160 32
WIRE 160 208 16 208
WIRE 656 208 656 80
WIRE 656 208 160 208
WIRE 864 208 864 -16
WIRE 864 208 656 208
WIRE 656 240 656 208
FLAG 656 240 0
FLAG -1200 -272 Vin
SYMBOL voltage -224 0 R0
WINDOW 3 -1037 294 Left 2
WINDOW 123 0 0 Left 2
WINDOW 39 0 0 Left 2
SYMATTR Value PULSE(3.3 0 300u 10n 10n 5u 10u)
SYMATTR InstName V1
SYMBOL npn -80 -96 R90
WINDOW 3 -84 109 Left 2
SYMATTR Value PH_BC847A
SYMATTR InstName Q3
SYMBOL voltage -336 0 R0
WINDOW 123 0 0 Left 2
WINDOW 39 0 0 Left 2
SYMATTR InstName V3
SYMATTR Value 3.3
SYMBOL res -144 -224 R0
SYMATTR InstName R4
SYMATTR Value 1.5k
SYMBOL res 0 -208 R0
SYMATTR InstName R6
SYMATTR Value 10k
SYMBOL nmos 816 -112 R0
SYMATTR InstName M1
SYMATTR Value Si4940DY
SYMBOL res 784 -48 R90
WINDOW 0 0 56 VBottom 2
WINDOW 3 32 56 VTop 2
SYMATTR InstName R1
SYMATTR Value 150
SYMBOL res 848 -240 R0
SYMATTR InstName R5
SYMATTR Value 8.5
SYMBOL Digital\\or 176 -64 R0
WINDOW 3 -1443 397 Left 2
SYMATTR Value Vhigh=5 Vlow=0 Ref=1.5 Trise=5n Tfall=5n Td=5n
SYMATTR InstName A1
SYMBOL schottky 480 -224 M90
WINDOW 0 0 32 VBottom 2
WINDOW 3 33 -7 VTop 2
SYMATTR InstName D1
SYMATTR Value PH_BAT54A
SYMATTR Description Diode
SYMATTR Type diode
SYMBOL res 560 80 M270
WINDOW 0 32 56 VTop 2
WINDOW 3 0 56 VBottom 2
SYMATTR InstName R2
SYMATTR Value 1.3k
SYMBOL res 560 -144 R90
WINDOW 0 0 56 VBottom 2
WINDOW 3 32 56 VTop 2
SYMATTR InstName R3
SYMATTR Value 1.3k
SYMBOL npn -48 32 R0
SYMATTR InstName Q1
SYMATTR Value PH_BC847A
SYMBOL res -48 64 R90
WINDOW 0 0 56 VBottom 2
WINDOW 3 32 56 VTop 2
SYMATTR InstName R7
SYMATTR Value 1.5k
SYMBOL res 320 -32 R90
WINDOW 0 0 56 VBottom 2
WINDOW 3 32 56 VTop 2
SYMATTR InstName R8
SYMATTR Value 220
SYMBOL PowerProducts\\LTC3255 -848 -128 R0
SYMATTR InstName U1
SYMBOL cap -1136 -176 R0
SYMATTR InstName C1
SYMATTR Value 1µ
SYMBOL cap -1056 64 R0
SYMATTR InstName C2
SYMATTR Value 0.1µ
SYMBOL cap -816 -416 R90
WINDOW 0 -6 34 VBottom 2
WINDOW 3 32 32 VTop 2
SYMATTR InstName C3
SYMATTR Value 1µ
SYMBOL res -704 -288 R0
SYMATTR InstName R9
SYMATTR Value 220k
SYMBOL res -608 -64 R0
SYMATTR InstName R10
SYMATTR Value 1.21Meg
SYMBOL res -608 -208 R0
SYMATTR InstName R11
SYMATTR Value 3.83Meg
SYMBOL cap -464 -112 R0
SYMATTR InstName C4
SYMATTR Value 10µ
SYMBOL cap -1280 -112 R0
SYMATTR InstName C5
SYMATTR Value 60µ
SYMBOL schottky -64 -112 R0
SYMATTR InstName D3
SYMATTR Value PH_BAT54A
SYMATTR Description Diode
SYMATTR Type diode
SYMBOL ZXMC3AMC 640 32 R0
SYMATTR InstName U2
SYMBOL schottky 544 160 M270
WINDOW 0 32 32 VTop 2
WINDOW 3 0 32 VBottom 2
SYMATTR InstName D2
SYMATTR Value PH_BAT54A
SYMATTR Description Diode
SYMATTR Type diode
TEXT -1272 368 Left 2 !.tran 0 1m 0 10u
TEXT -1264 400 Left 2 !.ic V(Vin)=30
