Version 4
SHEET 1 996 680
WIRE 864 -464 -1904 -464
WIRE -1520 -400 -1552 -400
WIRE -1424 -400 -1456 -400
WIRE -1552 -336 -1552 -400
WIRE -1424 -336 -1424 -400
WIRE -1904 -272 -1904 -464
WIRE -1840 -272 -1904 -272
WIRE -1760 -272 -1840 -272
WIRE -1648 -272 -1760 -272
WIRE -1616 -272 -1648 -272
WIRE -1328 -272 -1360 -272
WIRE -1232 -272 -1328 -272
WIRE -1104 -272 -1232 -272
WIRE -832 -272 -1104 -272
WIRE -608 -272 -832 -272
WIRE -464 -272 -608 -272
WIRE 16 -272 -464 -272
WIRE 656 -272 16 -272
WIRE 864 -224 864 -464
WIRE -128 -208 -336 -208
WIRE 480 -208 400 -208
WIRE 560 -208 544 -208
WIRE -1232 -192 -1232 -272
WIRE 16 -192 16 -272
WIRE -1760 -176 -1760 -272
WIRE -1648 -176 -1648 -272
WIRE -1616 -176 -1648 -176
WIRE -1328 -176 -1328 -192
WIRE -1328 -176 -1360 -176
WIRE 656 -144 656 -272
WIRE 400 -128 400 -208
WIRE 464 -128 400 -128
WIRE 560 -128 560 -208
WIRE 560 -128 544 -128
WIRE 576 -128 560 -128
WIRE -1904 -112 -1904 -272
WIRE -128 -112 -128 -128
WIRE -48 -112 -128 -112
WIRE 864 -112 864 -144
WIRE -1104 -96 -1104 -272
WIRE -832 -96 -832 -272
WIRE -608 -96 -608 -272
WIRE -128 -96 -128 -112
WIRE -1616 -80 -1712 -80
WIRE -1232 -80 -1232 -112
WIRE -1232 -80 -1360 -80
WIRE -464 -80 -464 -272
WIRE -1232 -48 -1232 -80
WIRE -176 -32 -224 -32
WIRE -48 -32 -48 -48
WIRE -48 -32 -80 -32
WIRE 16 -32 16 -112
WIRE 16 -32 -48 -32
WIRE 144 -32 16 -32
WIRE 656 -32 656 -48
WIRE 672 -32 672 -48
WIRE 672 -32 656 -32
WIRE 704 -32 672 -32
WIRE 288 -16 208 -16
WIRE 400 -16 400 -128
WIRE 400 -16 368 -16
WIRE 656 -16 656 -32
WIRE 672 -16 672 -32
WIRE -1616 16 -1680 16
WIRE -1312 16 -1360 16
WIRE -336 16 -336 -208
WIRE -224 16 -224 -32
WIRE 16 32 16 -32
WIRE -1680 64 -1680 16
WIRE 400 64 400 -16
WIRE 464 64 400 64
WIRE 560 64 544 64
WIRE 576 64 560 64
WIRE -144 80 -176 80
WIRE -48 80 -64 80
WIRE -880 96 -944 96
WIRE -656 96 -720 96
WIRE -944 112 -944 96
WIRE -832 112 -832 -16
WIRE -720 112 -720 96
WIRE -608 112 -608 -16
WIRE -880 128 -880 96
WIRE -656 128 -656 96
WIRE 400 144 400 64
WIRE 480 144 400 144
WIRE 560 144 560 64
WIRE 560 144 544 144
WIRE -1904 208 -1904 -48
WIRE -1760 208 -1760 -112
WIRE -1760 208 -1904 208
WIRE -1712 208 -1712 -80
WIRE -1712 208 -1760 208
WIRE -1680 208 -1680 128
WIRE -1680 208 -1712 208
WIRE -1312 208 -1312 16
WIRE -1312 208 -1680 208
WIRE -1232 208 -1232 32
WIRE -1232 208 -1312 208
WIRE -1104 208 -1104 -32
WIRE -1104 208 -1232 208
WIRE -944 208 -944 192
WIRE -944 208 -1104 208
WIRE -880 208 -880 176
WIRE -880 208 -944 208
WIRE -832 208 -832 192
WIRE -832 208 -880 208
WIRE -720 208 -720 192
WIRE -720 208 -832 208
WIRE -656 208 -656 176
WIRE -656 208 -720 208
WIRE -608 208 -608 192
WIRE -608 208 -656 208
WIRE -464 208 -464 0
WIRE -464 208 -608 208
WIRE -336 208 -336 96
WIRE -336 208 -464 208
WIRE -224 208 -224 96
WIRE -224 208 -336 208
WIRE -176 208 -176 80
WIRE -176 208 -224 208
WIRE 16 208 16 128
WIRE 16 208 -176 208
WIRE 160 208 160 32
WIRE 160 208 16 208
WIRE 656 208 656 80
WIRE 656 208 160 208
WIRE 864 208 864 -16
WIRE 864 208 656 208
WIRE 656 240 656 208
FLAG 656 240 0
FLAG -1840 -272 Vin
SYMBOL voltage -224 0 R0
WINDOW 3 -105 251 Left 2
WINDOW 123 0 0 Left 2
WINDOW 39 0 0 Left 2
SYMATTR Value PULSE(3.3 0 15 10n 10n 5u 10u)
SYMATTR InstName V1
SYMBOL npn -80 -96 R90
WINDOW 3 -84 109 Left 2
WINDOW 0 43 50 Left 2
SYMATTR Value PH_BC848B
SYMATTR InstName Q3
SYMBOL voltage -336 0 R0
WINDOW 123 0 0 Left 2
WINDOW 39 0 0 Left 2
SYMATTR InstName V3
SYMATTR Value 3.3
SYMBOL res -144 -224 R0
SYMATTR InstName R4
SYMATTR Value 1.5k
SYMBOL res 0 -208 R0
SYMATTR InstName R6
SYMATTR Value 10k
SYMBOL res 800 -48 R90
WINDOW 0 0 56 VBottom 2
WINDOW 3 32 56 VTop 2
SYMATTR InstName R1
SYMATTR Value 150
SYMBOL res 848 -240 R0
SYMATTR InstName R5
SYMATTR Value 8.5
SYMBOL Digital\\or 176 -64 R0
WINDOW 3 -75 312 Left 2
SYMATTR Value Vhigh=5 Vlow=0 Ref=1.5 Trise=5n Tfall=5n Td=5n
SYMATTR InstName A1
SYMBOL res 560 80 M270
WINDOW 0 32 56 VTop 2
WINDOW 3 0 56 VBottom 2
SYMATTR InstName R2
SYMATTR Value 1.3k
SYMBOL res 560 -144 R90
WINDOW 0 0 56 VBottom 2
WINDOW 3 32 56 VTop 2
SYMATTR InstName R3
SYMATTR Value 1.3k
SYMBOL npn -48 32 R0
SYMATTR InstName Q1
SYMATTR Value PH_BC848B
SYMBOL res -48 64 R90
WINDOW 0 0 56 VBottom 2
WINDOW 3 32 56 VTop 2
SYMATTR InstName R7
SYMATTR Value 1.5k
SYMBOL res 384 -32 R90
WINDOW 0 0 56 VBottom 2
WINDOW 3 32 56 VTop 2
SYMATTR InstName R8
SYMATTR Value 220
SYMBOL PowerProducts\\LTC3255 -1488 -128 R0
SYMATTR InstName U1
SYMBOL cap -1776 -176 R0
SYMATTR InstName C1
SYMATTR Value 1µ
SYMBOL cap -1696 64 R0
SYMATTR InstName C2
SYMATTR Value 0.1µ
SYMBOL cap -1456 -416 R90
WINDOW 0 -6 34 VBottom 2
WINDOW 3 32 32 VTop 2
SYMATTR InstName C3
SYMATTR Value 0.1µ
SYMBOL res -1344 -288 R0
SYMATTR InstName R9
SYMATTR Value 220k
SYMBOL res -1248 -64 R0
SYMATTR InstName R10
SYMATTR Value 1.21Meg
SYMBOL res -1248 -208 R0
SYMATTR InstName R11
SYMATTR Value 3.83Meg
SYMBOL cap -1120 -96 R0
SYMATTR InstName C4
SYMATTR Value 10µ
SYMBOL cap -1920 -112 R0
SYMATTR InstName C5
SYMATTR Value 60µ
SYMBOL schottky -64 -112 R0
WINDOW 3 33 60 Left 2
SYMATTR InstName D3
SYMATTR Value DI_BAS40T
SYMATTR Description Diode
SYMATTR Type diode
SYMBOL ZXMC3AMC 640 32 R0
SYMATTR InstName U2
SYMBOL diode 480 -192 R270
WINDOW 0 32 32 VTop 2
WINDOW 3 2 10 VBottom 2
SYMATTR InstName D4
SYMATTR Value DI_BAV99T
SYMBOL diode 544 128 R90
WINDOW 0 0 32 VBottom 2
WINDOW 3 32 32 VTop 2
SYMATTR InstName D1
SYMATTR Value DI_BAV99T
SYMBOL SiA440DJ 848 -64 R0
SYMATTR InstName U3
SYMBOL sw -832 208 M180
SYMATTR InstName S1
SYMATTR Value uC
SYMBOL voltage -944 96 R0
WINDOW 3 -37 186 Left 2
WINDOW 123 0 0 Left 0
WINDOW 39 0 0 Left 0
SYMATTR InstName V2
SYMATTR Value PULSE(0 5 200u 10n 10n 0.15 1 1)
SYMBOL voltage -720 96 R0
WINDOW 3 -257 260 Left 2
WINDOW 123 0 0 Left 0
WINDOW 39 0 0 Left 0
SYMATTR InstName V4
SYMATTR Value PULSE(0 5 200u 10n 10n 0.1 1 1)
SYMBOL sw -608 208 M180
SYMATTR InstName S2
SYMATTR Value tmr
SYMBOL res -848 -112 R0
SYMATTR InstName R12
SYMATTR Value 1.5k
SYMBOL res -624 -112 R0
SYMATTR InstName R13
SYMATTR Value 12k
SYMBOL res -480 -96 R0
SYMATTR InstName R14
SYMATTR Value 250k
TEXT -1912 240 Left 2 !.tran 0 16 0 10u
TEXT -1912 272 Left 2 !.ic V(Vin)=30
TEXT -984 248 Left 2 !.model uC SW(Ron=1m Roff=100Meg Vt=2.5 Vser=0 )
TEXT -984 320 Left 2 !.model tmr SW(Ron=1m Roff=100Meg Vt=2.5 Vser=0)
